test/data/regulator_higher_impedance_transformer_load/node.glm
#set iteration_limit=100000;

module powerflow {
	solver_method NR;
	line_capacitance false;
	}
	
// object voltdump {
//     filename voltage.csv;
// 	mode RECT;
// }

object node { 
      name n650;
      phases "ABCN";
      bustype SWING;
      voltage_A 2401.7771;
      voltage_B -1200.8886-2080.000j;
      voltage_C -1200.8886+2080.000j;
      nominal_voltage 2401.7771;
} 


object regulator_configuration:75 { 
     name feeder_reg_cfg; 
     Control OUTPUT_VOLTAGE; 
     band_center 7500.0; 
     band_width 120; 
     connect_type WYE_WYE; 
     time_delay 30; 
     raise_taps 16; 
     lower_taps 16; 
     regulation 0.10; 
     tap_pos_A 0; 
     tap_pos_B 0; 
     tap_pos_C 0; 
} 

object regulator:74 { 
     name fregn650n630; 
     from n650; 
     to n630; 
     phases ABC; 
     configuration feeder_reg_cfg; 
}  

object node { //630 {
     name n630;
     phases "ABCN";
     voltage_A 2401.7771+0j;
     voltage_B -1200.8886-2080.000j;
     voltage_C -1200.8886+2080.000j;
     nominal_voltage 2401.7771;
}


object transformer_configuration:42 { 
     connect_type WYE_WYE; 
     install_type PADMOUNT; 
     primary_voltage 12470.000 V; 
     secondary_voltage 480 V; 
     power_rating 3000.0; 
     powerA_rating 1000.0; 
     powerB_rating 1000.0; 
     powerC_rating 1000.0; 
     resistance 0.01; 
     reactance 0.06; 
      shunt_impedance 6545.460+6655.949j;
} 


object transformer:23 {
    phases "ABCN";
    from n630;
    to l6321;
    configuration transformer_configuration:42;
}

object load { //6321 {
     name l6321;
     phases "ABCN";
     constant_power_A 11333.333+6666.6667j;
     constant_power_B 44000+25333.3333j;
     constant_power_C 78000+45333.3333j;
     nominal_voltage 7200;
}